Version 4
SHEET 1 1144 800
WIRE 320 80 96 80
WIRE 576 80 320 80
WIRE 320 96 320 80
WIRE 96 128 96 80
WIRE 576 144 576 80
WIRE 320 192 320 176
WIRE 480 192 320 192
WIRE 320 208 320 192
WIRE 688 208 640 208
WIRE 720 208 688 208
WIRE 480 224 512 192
WIRE 512 224 480 192
WIRE 96 240 96 208
WIRE 512 256 496 256
WIRE 480 288 480 224
WIRE 480 288 432 288
WIRE 512 288 480 288
WIRE 320 304 320 288
WIRE 432 320 432 288
WIRE 544 368 544 336
WIRE 608 368 608 336
WIRE 432 416 432 400
WIRE 496 416 496 256
WIRE 496 416 432 416
WIRE 432 432 432 416
WIRE 432 544 432 512
FLAG 96 240 0
FLAG 576 80 +V
FLAG 544 368 0
FLAG 608 368 0
FLAG 320 304 0
FLAG 688 208 OUT
FLAG 432 544 0
SYMBOL voltage 96 112 R0
WINDOW 123 0 0 Left 0
WINDOW 39 0 0 Left 0
SYMATTR InstName V1
SYMATTR Value PULSE(0 2.5 .1 .001)
SYMBOL res 304 80 R0
SYMATTR InstName R1
SYMATTR Value 4.32Meg
SYMBOL Comparators\\LTC1540 576 144 R0
SYMATTR InstName U1
SYMBOL res 304 192 R0
SYMATTR InstName R2
SYMATTR Value 4.1Meg
SYMBOL res 416 416 R0
SYMATTR InstName R3
SYMATTR Value 1157000
SYMBOL res 416 304 R0
WINDOW 3 7 42 Left 0
SYMATTR Value 25k
SYMATTR InstName R4
TEXT 696 264 Left 0 !.tran 10
TEXT 560 48 Bottom 0 ;Nanopower 2.5V Vcc Threshold Detector
