Version 4
SHEET 1 1848 680
WIRE 224 -448 208 -448
WIRE 336 -448 304 -448
WIRE 432 -448 416 -448
WIRE 176 -352 160 -352
WIRE 208 -352 208 -448
WIRE 208 -352 176 -352
WIRE 256 -352 208 -352
WIRE 432 -352 432 -448
WIRE 432 -352 336 -352
WIRE 464 -352 432 -352
WIRE 512 -352 464 -352
WIRE 528 -352 512 -352
WIRE 624 -352 608 -352
WIRE 672 -352 624 -352
WIRE 784 -352 752 -352
WIRE 896 -352 864 -352
WIRE 928 -352 896 -352
WIRE 1152 -352 1008 -352
WIRE 1200 -352 1152 -352
WIRE 1248 -352 1200 -352
WIRE 160 -272 160 -352
WIRE 464 -272 464 -352
WIRE 1248 -272 1248 -352
WIRE 1152 -256 1152 -352
WIRE 928 -192 928 -352
WIRE 928 -192 704 -192
WIRE 1008 -176 1008 -352
WIRE 1008 -176 720 -176
WIRE 1152 -160 1152 -192
WIRE 1200 -160 1152 -160
WIRE 1248 -160 1248 -192
WIRE 1248 -160 1200 -160
WIRE 1200 -144 1200 -160
WIRE 160 -128 160 -192
WIRE 464 -128 464 -208
WIRE 720 -80 720 -176
WIRE 736 -80 720 -80
WIRE 928 -80 928 -192
WIRE 928 -80 864 -80
WIRE 704 -32 704 -192
WIRE 736 -32 704 -32
WIRE 928 -32 864 -32
WIRE 800 0 800 -16
WIRE 800 16 800 0
WIRE 800 128 800 96
WIRE 928 128 928 -32
FLAG 800 128 0
FLAG 928 128 0
FLAG 1200 -144 0
FLAG 160 -128 0
FLAG 1200 -352 out
FLAG 896 -352 sw
FLAG 800 0 d
FLAG 624 -352 in1
FLAG 464 -128 0
FLAG 176 -352 in
FLAG 512 -352 g
SYMBOL voltage 800 0 R0
WINDOW 3 -77 76 Left 2
WINDOW 123 -91 52 Left 2
WINDOW 39 0 0 Left 2
SYMATTR Value 0.4
SYMATTR Value2 AC 1
SYMATTR InstName Vduty
SYMBOL cap 1136 -256 R0
WINDOW 0 -42 13 Left 2
WINDOW 3 -62 41 Left 2
SYMATTR InstName C1
SYMATTR Value 10µF
SYMBOL res 1232 -288 R0
SYMATTR InstName Rload
SYMATTR Value 20
SYMBOL ind 656 -336 R270
WINDOW 0 32 56 VTop 2
WINDOW 3 5 56 VBottom 2
SYMATTR InstName L1
SYMATTR Value 33µH
SYMBOL res 880 -368 R90
WINDOW 0 0 56 VBottom 2
WINDOW 3 32 56 VTop 2
SYMATTR InstName RL
SYMATTR Value 0.1
SYMBOL voltage 160 -288 R0
WINDOW 0 41 34 Left 2
WINDOW 3 41 82 Left 2
WINDOW 123 36 97 Left 2
WINDOW 39 0 0 Left 0
SYMATTR InstName Vg
SYMATTR Value 24
SYMBOL ccm1 800 -48 M0
WINDOW 3 3 -56 Center 2
SYMATTR InstName U1
SYMBOL ind 240 -336 R270
WINDOW 0 32 56 VTop 2
WINDOW 3 5 56 VBottom 2
SYMATTR InstName Lf
SYMATTR Value 120µH
SYMBOL ind 208 -432 R270
WINDOW 0 32 56 VTop 2
WINDOW 3 5 56 VBottom 2
SYMATTR InstName Lb
SYMATTR Value 120µH
SYMBOL cap 448 -272 R0
SYMATTR InstName Cf
SYMATTR Value 340µF
SYMBOL res 432 -464 R90
WINDOW 0 0 56 VBottom 2
WINDOW 3 32 56 VTop 2
SYMATTR InstName Rf
SYMATTR Value 0.86
SYMBOL voltage 512 -352 R270
WINDOW 0 32 56 VTop 2
WINDOW 3 -36 57 VBottom 2
WINDOW 123 -56 72 VTop 2
WINDOW 39 0 0 Left 0
SYMATTR InstName Vsense
SYMATTR Value 0
TEXT 976 -32 Left 2 ;Simulation directives
TEXT 976 0 Left 2 !.lib average.lib
TEXT 264 -32 Left 2 ;Boost converter with input filter\n \nPower Electronics\nUniversity of Colorado Boulder
TEXT 976 32 Left 2 !.ac dec 300 20 200k
