Version 4
SHEET 1 3232 872
WIRE 608 -256 112 -256
WIRE 768 -256 608 -256
WIRE 608 -192 608 -256
WIRE 896 -192 832 -192
WIRE 1008 -192 960 -192
WIRE 112 -160 112 -256
WIRE 720 -128 656 -128
WIRE 832 -128 832 -192
WIRE 832 -128 720 -128
WIRE 1008 -128 1008 -192
WIRE 1072 -128 1008 -128
WIRE 832 -80 832 -128
WIRE 896 -80 832 -80
WIRE 1008 -80 1008 -128
WIRE 1008 -80 976 -80
WIRE 112 -32 112 -80
WIRE 112 -32 80 -32
WIRE 112 -16 112 -32
WIRE 80 32 80 -32
WIRE 112 32 80 32
WIRE 768 32 768 -256
WIRE 608 48 608 -96
WIRE 608 48 384 48
WIRE 720 48 720 -128
WIRE 720 48 608 48
WIRE 736 48 720 48
WIRE 1072 64 1072 -128
WIRE 1072 64 800 64
WIRE 736 80 704 80
WIRE 384 96 384 48
WIRE 384 96 320 96
WIRE 448 96 384 96
WIRE 704 96 704 80
WIRE 448 112 448 96
WIRE 320 128 320 96
WIRE 112 208 112 32
WIRE 448 224 448 176
WIRE 496 224 448 224
WIRE 608 224 608 48
WIRE 608 224 560 224
WIRE 320 240 320 208
WIRE 384 240 320 240
WIRE 448 240 448 224
WIRE 448 240 384 240
WIRE 608 272 608 224
WIRE 384 288 384 240
WIRE 112 384 112 288
WIRE 384 384 384 368
WIRE 384 384 112 384
WIRE 608 384 608 352
WIRE 608 384 384 384
WIRE 768 384 768 96
WIRE 768 384 608 384
FLAG 112 -16 0
FLAG 704 96 0
SYMBOL voltage 112 -176 R0
SYMATTR InstName V1
SYMATTR Value 5
SYMBOL current 320 128 R0
WINDOW 3 -595 440 Left 0
WINDOW 123 12 84 Left 0
WINDOW 39 0 0 Left 0
SYMATTR Value PWL(0us 0uA 2us 0uA 2.001us 100nA)
SYMATTR Value2 AC .1uA 0
SYMATTR InstName I1
SYMBOL voltage 112 192 R0
SYMATTR InstName V2
SYMATTR Value 5
SYMBOL cap 432 112 R0
WINDOW 0 -17 4 Left 0
WINDOW 3 -63 56 Left 0
SYMATTR InstName C2
SYMATTR Value 178pF
SYMBOL res 992 -96 R90
WINDOW 0 0 56 VBottom 0
WINDOW 3 32 56 VTop 0
SYMATTR InstName R3
SYMATTR Value 1Meg
SYMBOL cap 960 -208 R90
WINDOW 0 0 32 VBottom 0
WINDOW 3 32 32 VTop 0
SYMATTR InstName C5
SYMATTR Value 0.25pF
SYMBOL njf 656 -192 M0
SYMATTR InstName J1
SYMATTR Value BF862
SYMBOL res 592 256 R0
SYMATTR InstName R1
SYMATTR Value 4.99k
SYMBOL opamps\\LTC6244 768 64 R0
SYMATTR InstName U2
SYMBOL res 368 272 R0
SYMATTR InstName R2
SYMATTR Value 10k
SYMBOL cap 560 208 R90
WINDOW 0 0 32 VBottom 0
WINDOW 3 32 32 VTop 0
SYMATTR InstName C1
SYMATTR Value 10µf
TEXT -120 480 Left 0 !.model BF862 NJF(Beta=0.0299   Rd=0.1  Rs=0.1  Lambda=10m  Vto=-.766   Is=33.57f   Cgd=2p  M=.3622  Fc=.5  Cgs=8p)
TEXT 144 -208 Left 0 !.ac oct 10 70k 1Meg
TEXT -112 440 Left 0 !.model  ltra1 LTRA(len=1 r=.328 c=56.758e-12  l=0.318e-6)
