Version 4
SHEET 1 1252 692
WIRE -128 96 -208 96
WIRE -48 96 -128 96
WIRE 128 96 -48 96
WIRE 176 96 128 96
WIRE 304 96 256 96
WIRE 352 96 304 96
WIRE 464 96 416 96
WIRE 528 96 464 96
WIRE 624 96 528 96
WIRE -208 112 -208 96
WIRE 528 112 528 96
WIRE 624 112 624 96
WIRE -128 128 -128 96
WIRE 128 144 128 96
WIRE -48 208 -48 96
WIRE -16 208 -48 208
WIRE 304 208 304 96
WIRE 304 208 272 208
WIRE 528 208 528 176
WIRE 624 208 624 192
WIRE -208 224 -208 192
WIRE -128 224 -128 192
WIRE -96 288 -128 288
WIRE -16 288 -32 288
WIRE 336 288 272 288
WIRE 464 288 464 96
WIRE 464 288 416 288
WIRE -112 368 -128 368
WIRE -16 368 -32 368
WIRE 288 368 272 368
WIRE 384 368 368 368
WIRE 464 368 448 368
WIRE 128 448 128 432
FLAG 128 448 0
FLAG 528 208 0
FLAG 464 368 0
FLAG -128 368 0
FLAG -128 288 0
FLAG -208 224 0
FLAG 624 208 0
FLAG -208 96 IN
FLAG 624 96 OUT
FLAG -128 224 0
SYMBOL PowerProducts\\LT3580 128 288 R0
SYMATTR InstName U1
SYMBOL ind 160 112 R270
WINDOW 0 32 56 VTop 0
WINDOW 3 5 56 VBottom 0
SYMATTR InstName L1
SYMATTR Value 6.8µ
SYMATTR SpiceLine Rpar=3K
SYMBOL schottky 352 112 R270
WINDOW 0 32 32 VTop 0
WINDOW 3 0 32 VBottom 0
SYMATTR InstName D1
SYMATTR Value DFLS220L
SYMATTR Description Diode
SYMATTR Type diode
SYMBOL cap -144 128 R0
SYMATTR InstName C1
SYMATTR Value 4.7µ
SYMBOL res -16 352 R90
WINDOW 0 0 56 VBottom 0
WINDOW 3 32 56 VTop 0
SYMATTR InstName R1
SYMATTR Value 84.5K
SYMBOL cap -32 272 R90
WINDOW 0 0 32 VBottom 0
WINDOW 3 32 32 VTop 0
SYMATTR InstName C2
SYMATTR Value .001µ
SYMBOL voltage -208 96 R0
SYMATTR InstName V1
SYMATTR Value 3
SYMBOL res 432 272 R90
WINDOW 0 0 56 VBottom 0
WINDOW 3 32 56 VTop 0
SYMATTR InstName R2
SYMATTR Value 130K
SYMBOL res 384 352 R90
WINDOW 0 0 56 VBottom 0
WINDOW 3 32 56 VTop 0
SYMATTR InstName R3
SYMATTR Value 20K
SYMBOL cap 448 352 R90
WINDOW 0 0 32 VBottom 0
WINDOW 3 32 32 VTop 0
SYMATTR InstName C3
SYMATTR Value .001µ
SYMBOL cap 512 112 R0
SYMATTR InstName C4
SYMATTR Value 10µ
SYMBOL res 608 96 R0
SYMATTR InstName Rload
SYMATTR Value 40
TEXT 424 464 Left 0 !.tran 1m startup
TEXT 216 16 Bottom 0 ;LT3580 - 42V, 2A, Adjustable Switching Frequency Boost Regulator in 3×3 DFN\nInput: 3V to 10V       Output: 12V @ 300mA
TEXT -400 512 Left 0 ;Note:\n Model developed by DIABLO MOUNTAIN RESEARCH, LLC. \nIf the LT3580 test model does appear in LTSpice the "Sync Release" command from the "Tools" menu.
