Version 4
SHEET 1 1716 964
WIRE -672 -768 -736 -768
WIRE -496 -768 -576 -768
WIRE -448 -768 -496 -768
WIRE -224 -768 -352 -768
WIRE -592 -656 -592 -720
WIRE -432 -656 -432 -720
WIRE -432 -656 -592 -656
WIRE -592 -640 -592 -656
WIRE -560 -560 -592 -560
WIRE -560 -544 -560 -560
WIRE -496 -544 -496 -768
WIRE -496 -544 -560 -544
WIRE -736 -448 -736 -768
WIRE 976 -368 736 -368
WIRE 1232 -368 976 -368
WIRE 976 -352 976 -368
WIRE -736 -320 -736 -368
WIRE 1232 -304 1232 -368
WIRE -224 -256 -224 -768
WIRE -224 -256 -272 -256
WIRE -192 -256 -224 -256
WIRE -64 -256 -96 -256
WIRE -16 -256 -64 -256
WIRE 400 -256 80 -256
WIRE 976 -256 976 -272
WIRE 1136 -256 976 -256
WIRE 976 -240 976 -256
WIRE 1344 -240 1296 -240
WIRE 1376 -240 1344 -240
WIRE 1136 -224 1168 -256
WIRE 1168 -224 1136 -256
WIRE 1168 -192 1152 -192
WIRE -112 -160 -112 -208
WIRE 0 -160 0 -208
WIRE 0 -160 -112 -160
WIRE 64 -160 0 -160
WIRE 1136 -160 1136 -224
WIRE 1136 -160 1088 -160
WIRE 1168 -160 1136 -160
WIRE -640 -144 -704 -144
WIRE -448 -144 -544 -144
WIRE -432 -144 -448 -144
WIRE -272 -144 -272 -256
WIRE -272 -144 -336 -144
WIRE 1088 -128 1088 -160
WIRE -64 -48 -64 -256
WIRE 64 -48 64 -80
WIRE 64 -48 -64 -48
WIRE -560 -32 -560 -96
WIRE -416 -32 -416 -96
WIRE -416 -32 -560 -32
WIRE 1088 -32 1088 -48
WIRE 1152 -32 1152 -192
WIRE 1152 -32 1088 -32
WIRE -560 -16 -560 -32
WIRE 1088 -16 1088 -32
WIRE 1200 -16 1200 -112
WIRE 1248 -16 1200 -16
WIRE 1264 -16 1264 -112
WIRE 1264 -16 1248 -16
WIRE -272 32 -272 -144
WIRE 736 32 736 -368
WIRE 736 32 -272 32
WIRE -448 64 -448 -144
WIRE -448 64 -560 64
WIRE 976 96 976 -160
WIRE 976 96 96 96
WIRE 1088 96 1088 64
WIRE 1088 96 976 96
WIRE 1248 96 1248 -16
WIRE 1248 96 1088 96
WIRE -704 176 -704 -144
WIRE -272 176 -272 32
WIRE -112 176 -272 176
WIRE 16 176 -48 176
WIRE 96 176 96 96
WIRE 96 176 16 176
WIRE 112 176 96 176
WIRE 240 176 208 176
WIRE 288 176 240 176
WIRE 400 176 400 -256
WIRE 400 176 384 176
WIRE 576 176 400 176
WIRE 1056 176 576 176
WIRE 1312 176 1056 176
WIRE 1056 192 1056 176
WIRE 576 224 576 176
WIRE 1312 240 1312 176
WIRE 192 272 192 224
WIRE 304 272 304 224
WIRE 304 272 192 272
WIRE 368 272 304 272
WIRE 1056 288 1056 272
WIRE 1216 288 1056 288
WIRE -704 304 -704 256
WIRE 1056 304 1056 288
WIRE 1424 304 1376 304
WIRE 1456 304 1424 304
WIRE 1216 320 1248 288
WIRE 1248 320 1216 288
WIRE 1248 352 1232 352
WIRE 240 384 240 176
WIRE 368 384 368 352
WIRE 368 384 240 384
WIRE 1216 384 1216 320
WIRE 1216 384 1168 384
WIRE 1248 384 1216 384
WIRE 1056 400 1056 384
WIRE 1168 416 1168 384
WIRE 1280 464 1280 432
WIRE 1344 464 1344 432
WIRE 1168 512 1168 496
WIRE 1232 512 1232 352
WIRE 1232 512 1168 512
WIRE 1168 528 1168 512
WIRE 1168 640 1168 608
WIRE 16 704 16 176
WIRE 80 704 16 704
WIRE 208 704 176 704
WIRE 576 704 576 288
WIRE 576 704 208 704
WIRE 576 752 576 704
WIRE 160 832 160 752
WIRE 208 912 208 704
WIRE 208 912 160 912
FLAG 576 752 0
FLAG 1280 464 0
FLAG 1344 464 0
FLAG 1056 400 0
FLAG 1424 304 OUT2
FLAG 1168 640 0
FLAG -704 304 0
FLAG -736 -320 0
FLAG 1344 -240 OUT1
SYMBOL nmos 112 224 R270
SYMATTR InstName M1
SYMATTR Value IPB009N03L
SYMBOL nmos 384 224 M270
SYMATTR InstName M2
SYMATTR Value IPB009N03L
SYMBOL voltage 368 256 R0
WINDOW 123 0 0 Left 0
WINDOW 39 24 132 Left 0
WINDOW 3 -216 201 Left 0
SYMATTR SpiceLine Rser=150k
SYMATTR Value PULSE(0 10 500.15 12m .003 1000)
SYMATTR InstName V2
SYMBOL cap 560 224 R0
SYMATTR InstName C1
SYMATTR Value 350
SYMATTR SpiceLine V=2.5 Rser=.0032 Rpar=1G Cpar=1p
SYMBOL cap -48 160 R90
WINDOW 0 0 32 VBottom 0
WINDOW 3 32 32 VTop 0
SYMATTR InstName C2
SYMATTR Value 350
SYMATTR SpiceLine V=2.5 Rser=.00032 Rpar=1G
SYMBOL nmos -192 -208 R270
SYMATTR InstName M3
SYMATTR Value IPB009N03L
SYMBOL nmos 80 -208 M270
SYMATTR InstName M4
SYMATTR Value IPB009N03L
SYMBOL voltage 64 -176 R0
WINDOW 123 0 0 Left 0
WINDOW 39 24 132 Left 0
WINDOW 3 367 45 Left 0
SYMATTR SpiceLine Rser=150k
SYMATTR Value PULSE(0 10 .001 12m .003 500.0)
SYMATTR InstName V3
SYMBOL nmos 80 752 R270
SYMATTR InstName M5
SYMATTR Value IPB009N03L
SYMBOL voltage 160 816 R0
WINDOW 123 0 0 Left 0
WINDOW 39 24 132 Left 0
WINDOW 3 367 45 Left 0
SYMATTR SpiceLine Rser=150k
SYMATTR Value PULSE(0 10 .001 6m .003 500.0)
SYMATTR InstName V4
SYMBOL res 1040 176 R0
SYMATTR InstName R1
SYMATTR Value 4320000
SYMBOL Comparators\\LTC1540 1312 240 R0
SYMATTR InstName U1
SYMBOL res 1040 288 R0
SYMATTR InstName R2
SYMATTR Value 4100000
SYMBOL res 1152 512 R0
SYMATTR InstName R3
SYMATTR Value 1157000
SYMBOL res 1152 400 R0
WINDOW 3 7 42 Left 0
SYMATTR Value 25k
SYMATTR InstName R4
SYMBOL voltage -704 160 R0
WINDOW 123 0 0 Left 0
WINDOW 39 24 44 Left 0
WINDOW 3 24 44 Left 0
SYMATTR SpiceLine Rser=.1 Cpar=1000u
SYMATTR Value 2.7
SYMATTR InstName V5
SYMBOL nmos -640 -96 R270
SYMATTR InstName M6
SYMATTR Value IPB009N03L
SYMBOL voltage -560 -32 R0
WINDOW 123 0 0 Left 0
WINDOW 39 24 132 Left 0
WINDOW 3 367 45 Left 0
SYMATTR SpiceLine Rser=150k
SYMATTR Value PULSE(0 10 .001 12 .003 500.0)
SYMATTR InstName V1
SYMBOL voltage -736 -464 R0
WINDOW 123 0 0 Left 0
WINDOW 39 24 44 Left 0
WINDOW 3 24 44 Left 0
SYMATTR SpiceLine Rser=.3 Cpar=1000u
SYMATTR Value 5.4
SYMATTR InstName V6
SYMBOL nmos -672 -720 R270
SYMATTR InstName M7
SYMATTR Value IPB009N03L
SYMBOL voltage -592 -656 R0
WINDOW 123 0 0 Left 0
WINDOW 39 24 132 Left 0
WINDOW 3 367 45 Left 0
SYMATTR SpiceLine Rser=150k
SYMATTR Value PULSE(0 10 500.15 .012 .003 1000)
SYMATTR InstName V7
SYMBOL nmos -336 -96 M270
SYMATTR InstName M8
SYMATTR Value IPB009N03L
SYMBOL nmos -352 -720 M270
SYMATTR InstName M9
SYMATTR Value IPB009N03L
SYMBOL res 960 -368 R0
SYMATTR InstName R6
SYMATTR Value 4320000
SYMBOL Comparators\\LTC1540 1232 -304 R0
SYMATTR InstName U2
SYMBOL res 960 -256 R0
SYMATTR InstName R7
SYMATTR Value 4100000
SYMBOL res 1072 -32 R0
SYMATTR InstName R8
SYMATTR Value 1157000
SYMBOL res 1072 -144 R0
WINDOW 3 7 42 Left 0
SYMATTR Value 25k
SYMATTR InstName R9
TEXT -80 408 Left 0 !.tran 1000
TEXT 1432 360 Left 0 !;tran 10
